448223
  -OEChem-01181906063D

 40 42  0     1  0  0  0  0  0999 V2000
   -0.5480   -0.6261   -0.4493 O   0  0  0  0  0  0  0  0  0  0  0  0
    0.7323    2.4492    1.4160 O   0  0  0  0  0  0  0  0  0  0  0  0
    0.6100    1.9667   -0.8084 O   0  0  0  0  0  0  0  0  0  0  0  0
   -1.0667   -0.5952    1.7933 O   0  0  0  0  0  0  0  0  0  0  0  0
    3.3864    0.4509   -0.6153 N   0  0  2  0  0  0  0  0  0  0  0  0
    2.9237    0.2999    0.7804 C   0  0  1  0  0  0  0  0  0  0  0  0
    3.1642   -0.8913   -1.1815 C   0  0  1  0  0  0  0  0  0  0  0  0
    1.3746    0.2818    0.7566 C   0  0  2  0  0  0  0  0  0  0  0  0
    3.4940   -1.0563    1.2157 C   0  0  0  0  0  0  0  0  0  0  0  0
    3.6450   -1.8493   -0.0858 C   0  0  0  0  0  0  0  0  0  0  0  0
    1.6474   -1.0113   -1.4317 C   0  0  0  0  0  0  0  0  0  0  0  0
    0.8247   -0.8407   -0.1446 C   0  0  2  0  0  0  0  0  0  0  0  0
    4.7778    0.8851   -0.7098 C   0  0  0  0  0  0  0  0  0  0  0  0
    0.8665    1.6362    0.3397 C   0  0  0  0  0  0  0  0  0  0  0  0
   -1.3877   -0.5215    0.6173 C   0  0  0  0  0  0  0  0  0  0  0  0
   -2.7852   -0.3014    0.1669 C   0  0  0  0  0  0  0  0  0  0  0  0
   -3.8209   -0.7731    0.9474 C   0  0  0  0  0  0  0  0  0  0  0  0
   -3.0051    0.3700   -1.0185 C   0  0  0  0  0  0  0  0  0  0  0  0
   -5.1335   -0.5642    0.5241 C   0  0  0  0  0  0  0  0  0  0  0  0
   -4.3177    0.5787   -1.4418 C   0  0  0  0  0  0  0  0  0  0  0  0
   -5.3819    0.1117   -0.6705 C   0  0  0  0  0  0  0  0  0  0  0  0
    3.2740    1.1155    1.4245 H   0  0  0  0  0  0  0  0  0  0  0  0
    3.6944   -1.0478   -2.1276 H   0  0  0  0  0  0  0  0  0  0  0  0
    1.0501    0.1145    1.7893 H   0  0  0  0  0  0  0  0  0  0  0  0
    2.8544   -1.5751    1.9371 H   0  0  0  0  0  0  0  0  0  0  0  0
    4.4783   -0.9297    1.6822 H   0  0  0  0  0  0  0  0  0  0  0  0
    4.7000   -2.1082   -0.2342 H   0  0  0  0  0  0  0  0  0  0  0  0
    3.0777   -2.7854   -0.0622 H   0  0  0  0  0  0  0  0  0  0  0  0
    1.3314   -0.2714   -2.1790 H   0  0  0  0  0  0  0  0  0  0  0  0
    1.4157   -1.9879   -1.8758 H   0  0  0  0  0  0  0  0  0  0  0  0
    0.8870   -1.7914    0.4030 H   0  0  0  0  0  0  0  0  0  0  0  0
    5.0719    0.9739   -1.7614 H   0  0  0  0  0  0  0  0  0  0  0  0
    5.4878    0.2139   -0.2160 H   0  0  0  0  0  0  0  0  0  0  0  0
    4.8902    1.8813   -0.2678 H   0  0  0  0  0  0  0  0  0  0  0  0
    0.4024    3.3381    1.1645 H   0  0  0  0  0  0  0  0  0  0  0  0
   -3.6401   -1.3033    1.8776 H   0  0  0  0  0  0  0  0  0  0  0  0
   -2.1950    0.7557   -1.6302 H   0  0  0  0  0  0  0  0  0  0  0  0
   -5.9623   -0.9284    1.1243 H   0  0  0  0  0  0  0  0  0  0  0  0
   -4.5115    1.1078   -2.3703 H   0  0  0  0  0  0  0  0  0  0  0  0
   -6.4039    0.2748   -0.9998 H   0  0  0  0  0  0  0  0  0  0  0  0
  1 12  1  0  0  0  0
  1 15  1  0  0  0  0
  2 14  1  0  0  0  0
  2 35  1  0  0  0  0
  3 14  2  0  0  0  0
  4 15  2  0  0  0  0
  5  6  1  0  0  0  0
  5  7  1  0  0  0  0
  5 13  1  0  0  0  0
  6  8  1  0  0  0  0
  6  9  1  0  0  0  0
  6 22  1  0  0  0  0
  7 10  1  0  0  0  0
  7 11  1  0  0  0  0
  7 23  1  0  0  0  0
  8 12  1  0  0  0  0
  8 14  1  0  0  0  0
  8 24  1  0  0  0  0
  9 10  1  0  0  0  0
  9 25  1  0  0  0  0
  9 26  1  0  0  0  0
 10 27  1  0  0  0  0
 10 28  1  0  0  0  0
 11 12  1  0  0  0  0
 11 29  1  0  0  0  0
 11 30  1  0  0  0  0
 12 31  1  0  0  0  0
 13 32  1  0  0  0  0
 13 33  1  0  0  0  0
 13 34  1  0  0  0  0
 15 16  1  0  0  0  0
 16 17  2  0  0  0  0
 16 18  1  0  0  0  0
 17 19  1  0  0  0  0
 17 36  1  0  0  0  0
 18 20  2  0  0  0  0
 18 37  1  0  0  0  0
 19 21  2  0  0  0  0
 19 38  1  0  0  0  0
 20 21  1  0  0  0  0
 20 39  1  0  0  0  0
 21 40  1  0  0  0  0
M  END
> <PUBCHEM_COMPOUND_CID>
448223

> <PUBCHEM_CONFORMER_RMSD>
0.8

> <PUBCHEM_CONFORMER_DIVERSEORDER>
1
6
8
4
5
7
9
3
10
2

> <PUBCHEM_MMFF94_PARTIAL_CHARGES>
24
1 -0.43
12 0.28
13 0.27
14 0.66
15 0.63
16 0.09
17 -0.15
18 -0.15
19 -0.15
2 -0.65
20 -0.15
21 -0.15
3 -0.57
35 0.5
36 0.15
37 0.15
38 0.15
39 0.15
4 -0.57
40 0.15
5 -0.81
6 0.27
7 0.27
8 0.06

> <PUBCHEM_EFFECTIVE_ROTOR_COUNT>
5.2

> <PUBCHEM_PHARMACOPHORE_FEATURES>
7
1 2 acceptor
1 3 acceptor
1 4 acceptor
1 5 cation
3 2 3 14 anion
6 16 17 18 19 20 21 rings
8 5 6 7 8 9 10 11 12 rings

> <PUBCHEM_HEAVY_ATOM_COUNT>
21

> <PUBCHEM_ATOM_DEF_STEREO_COUNT>
4

> <PUBCHEM_ATOM_UDEF_STEREO_COUNT>
0

> <PUBCHEM_BOND_DEF_STEREO_COUNT>
0

> <PUBCHEM_BOND_UDEF_STEREO_COUNT>
0

> <PUBCHEM_ISOTOPIC_ATOM_COUNT>
0

> <PUBCHEM_COMPONENT_COUNT>
1

> <PUBCHEM_CACTVS_TAUTO_COUNT>
1

> <PUBCHEM_CONFORMER_ID>
0006D6DF00000001

> <PUBCHEM_MMFF94_ENERGY>
59.4926

> <PUBCHEM_FEATURE_SELFOVERLAP>
35.577

> <PUBCHEM_SHAPE_FINGERPRINT>
10498660 4 16588293965636760277
12011746 2 17988649609923814996
12236239 1 16558754520245880911
12553582 1 17917713504270518280
12916748 109 16515689935641604775
13134695 92 18272363183107180744
13583140 156 18335982077353096195
15048467 5 17095242553334048036
15788980 27 18409162195358412119
15848700 24 18272930497021298084
1601671 61 18202283636700167164
16945 1 17846781814967215306
17349148 13 17489872648183613083
17357779 13 18342452608677135437
1813 80 17561092375384658428
18186145 218 17603871057032621942
18222031 100 17775284950094388366
19784866 240 17096642098787990490
200 152 17489587853323516827
20233049 118 17385437726235762917
20645477 70 18411423873660454510
21267235 1 15195572329318193503
21285901 2 18336264531244156141
21641784 216 18267324091727605684
221357 26 18409161100579634181
22289505 5 18413103944306644797
22646028 1 16630525129085798399
23402539 116 17845935134815308083
23559900 14 17894349956502539442
2637199 183 14634871916204224307
3004659 81 17385720249733224242
34934 24 18341609378121977238
4340502 62 17676483978111070890
474 4 16915924352678947600
5104073 3 16877660141289353401
54040823 5 18341617031495476370
542803 24 18272936016317972075
7164475 11 18196094344145500276
7495541 125 18261397801357139227
9971528 1 17561081401758787928

> <PUBCHEM_SHAPE_MULTIPOLES>
403.71
10.31
1.62
1.44
8.35
0.63
-0.05
-1.14
1.85
-1.23
-0.23
-0.02
0.03
0.67

> <PUBCHEM_SHAPE_SELFOVERLAP>
872.952

> <PUBCHEM_SHAPE_VOLUME>
220.5

> <PUBCHEM_COORDINATE_TYPE>
2
5
10

$$$$
