5281863
  -OEChem-01181906053D

 47 49  0     1  0  0  0  0  0999 V2000
    0.2277   -0.0912    0.4705 O   0  0  0  0  0  0  0  0  0  0  0  0
    3.1608    2.7323    0.5526 O   0  0  0  0  0  0  0  0  0  0  0  0
    1.3489    1.9238   -0.6305 O   0  0  0  0  0  0  0  0  0  0  0  0
   -0.6179   -2.1982    0.0422 O   0  0  0  0  0  0  0  0  0  0  0  0
    4.0784   -0.2947   -0.8702 N   0  0  2  0  0  0  0  0  0  0  0  0
    4.0214    0.0561    0.5646 C   0  0  1  0  0  0  0  0  0  0  0  0
    3.4161   -1.6103   -0.9128 C   0  0  1  0  0  0  0  0  0  0  0  0
    2.5670    0.4877    0.8795 C   0  0  2  0  0  0  0  0  0  0  0  0
    4.3863   -1.2508    1.2808 C   0  0  0  0  0  0  0  0  0  0  0  0
    3.9761   -2.3563    0.3035 C   0  0  0  0  0  0  0  0  0  0  0  0
    1.9038   -1.3395   -0.7808 C   0  0  0  0  0  0  0  0  0  0  0  0
    1.5492   -0.6144    0.5273 C   0  0  2  0  0  0  0  0  0  0  0  0
    5.4414   -0.3265   -1.3945 C   0  0  0  0  0  0  0  0  0  0  0  0
    2.2650    1.7793    0.1676 C   0  0  0  0  0  0  0  0  0  0  0  0
   -0.7600   -0.9987    0.2196 C   0  0  0  0  0  0  0  0  0  0  0  0
    2.9888    4.0180   -0.0520 C   0  0  0  0  0  0  0  0  0  0  0  0
   -2.0508   -0.2739    0.1968 C   0  0  0  0  0  0  0  0  0  0  0  0
   -3.1859   -0.9529   -0.0216 C   0  0  0  0  0  0  0  0  0  0  0  0
   -4.5291   -0.3479   -0.0572 C   0  0  0  0  0  0  0  0  0  0  0  0
   -4.6539    1.0148   -0.2741 C   0  0  0  0  0  0  0  0  0  0  0  0
   -5.6412   -1.1535    0.1268 C   0  0  0  0  0  0  0  0  0  0  0  0
   -5.9253    1.5876   -0.3076 C   0  0  0  0  0  0  0  0  0  0  0  0
   -6.9126   -0.5806    0.0932 C   0  0  0  0  0  0  0  0  0  0  0  0
   -7.0545    0.7899   -0.1240 C   0  0  0  0  0  0  0  0  0  0  0  0
    4.7258    0.8539    0.8263 H   0  0  0  0  0  0  0  0  0  0  0  0
    3.6021   -2.1493   -1.8487 H   0  0  0  0  0  0  0  0  0  0  0  0
    2.4597    0.7067    1.9510 H   0  0  0  0  0  0  0  0  0  0  0  0
    5.4668   -1.3051    1.4603 H   0  0  0  0  0  0  0  0  0  0  0  0
    3.8881   -1.3574    2.2499 H   0  0  0  0  0  0  0  0  0  0  0  0
    4.8599   -2.9422    0.0245 H   0  0  0  0  0  0  0  0  0  0  0  0
    3.2518   -3.0464    0.7482 H   0  0  0  0  0  0  0  0  0  0  0  0
    1.4074   -2.3109   -0.8558 H   0  0  0  0  0  0  0  0  0  0  0  0
    1.5532   -0.7550   -1.6421 H   0  0  0  0  0  0  0  0  0  0  0  0
    1.5699   -1.3464    1.3466 H   0  0  0  0  0  0  0  0  0  0  0  0
    5.8900    0.6710   -1.3318 H   0  0  0  0  0  0  0  0  0  0  0  0
    6.1018   -1.0279   -0.8745 H   0  0  0  0  0  0  0  0  0  0  0  0
    5.4282   -0.5980   -2.4558 H   0  0  0  0  0  0  0  0  0  0  0  0
    3.7621    4.6841    0.3398 H   0  0  0  0  0  0  0  0  0  0  0  0
    3.1057    3.9441   -1.1374 H   0  0  0  0  0  0  0  0  0  0  0  0
    2.0078    4.4291    0.2046 H   0  0  0  0  0  0  0  0  0  0  0  0
   -2.0177    0.7929    0.3846 H   0  0  0  0  0  0  0  0  0  0  0  0
   -3.1566   -2.0291   -0.1773 H   0  0  0  0  0  0  0  0  0  0  0  0
   -3.8054    1.6700   -0.4435 H   0  0  0  0  0  0  0  0  0  0  0  0
   -5.5470   -2.2225    0.2986 H   0  0  0  0  0  0  0  0  0  0  0  0
   -6.0368    2.6539   -0.4816 H   0  0  0  0  0  0  0  0  0  0  0  0
   -7.7922   -1.2015    0.2362 H   0  0  0  0  0  0  0  0  0  0  0  0
   -8.0445    1.2357   -0.1513 H   0  0  0  0  0  0  0  0  0  0  0  0
  1 12  1  0  0  0  0
  1 15  1  0  0  0  0
  2 14  1  0  0  0  0
  2 16  1  0  0  0  0
  3 14  2  0  0  0  0
  4 15  2  0  0  0  0
  5  6  1  0  0  0  0
  5  7  1  0  0  0  0
  5 13  1  0  0  0  0
  6  8  1  0  0  0  0
  6  9  1  0  0  0  0
  6 25  1  0  0  0  0
  7 10  1  0  0  0  0
  7 11  1  0  0  0  0
  7 26  1  0  0  0  0
  8 12  1  0  0  0  0
  8 14  1  0  0  0  0
  8 27  1  0  0  0  0
  9 10  1  0  0  0  0
  9 28  1  0  0  0  0
  9 29  1  0  0  0  0
 10 30  1  0  0  0  0
 10 31  1  0  0  0  0
 11 12  1  0  0  0  0
 11 32  1  0  0  0  0
 11 33  1  0  0  0  0
 12 34  1  0  0  0  0
 13 35  1  0  0  0  0
 13 36  1  0  0  0  0
 13 37  1  0  0  0  0
 15 17  1  0  0  0  0
 16 38  1  0  0  0  0
 16 39  1  0  0  0  0
 16 40  1  0  0  0  0
 17 18  2  0  0  0  0
 17 41  1  0  0  0  0
 18 19  1  0  0  0  0
 18 42  1  0  0  0  0
 19 20  2  0  0  0  0
 19 21  1  0  0  0  0
 20 22  1  0  0  0  0
 20 43  1  0  0  0  0
 21 23  2  0  0  0  0
 21 44  1  0  0  0  0
 22 24  2  0  0  0  0
 22 45  1  0  0  0  0
 23 24  1  0  0  0  0
 23 46  1  0  0  0  0
 24 47  1  0  0  0  0
M  END
> <PUBCHEM_COMPOUND_CID>
5281863

> <PUBCHEM_CONFORMER_RMSD>
0.8

> <PUBCHEM_CONFORMER_DIVERSEORDER>
4
22
42
43
14
3
32
5
44
6
21
25
24
40
19
12
36
23
45
46
30
38
1
39
41
8
29
2
49
18
35
34
27
16
28
37
15
13
47
48
31
17
33
26
7
9
20
11
10

> <PUBCHEM_MMFF94_PARTIAL_CHARGES>
28
1 -0.43
12 0.28
13 0.27
14 0.66
15 0.71
16 0.28
17 -0.14
18 -0.18
19 0.03
2 -0.43
20 -0.15
21 -0.15
22 -0.15
23 -0.15
24 -0.15
3 -0.57
4 -0.57
41 0.15
42 0.15
43 0.15
44 0.15
45 0.15
46 0.15
47 0.15
5 -0.81
6 0.27
7 0.27
8 0.06

> <PUBCHEM_EFFECTIVE_ROTOR_COUNT>
7.2

> <PUBCHEM_PHARMACOPHORE_FEATURES>
5
1 3 acceptor
1 4 acceptor
1 5 cation
6 19 20 21 22 23 24 rings
8 5 6 7 8 9 10 11 12 rings

> <PUBCHEM_HEAVY_ATOM_COUNT>
24

> <PUBCHEM_ATOM_DEF_STEREO_COUNT>
2

> <PUBCHEM_ATOM_UDEF_STEREO_COUNT>
2

> <PUBCHEM_BOND_DEF_STEREO_COUNT>
1

> <PUBCHEM_BOND_UDEF_STEREO_COUNT>
0

> <PUBCHEM_ISOTOPIC_ATOM_COUNT>
0

> <PUBCHEM_COMPONENT_COUNT>
1

> <PUBCHEM_CACTVS_TAUTO_COUNT>
1

> <PUBCHEM_CONFORMER_ID>
0050984700000004

> <PUBCHEM_MMFF94_ENERGY>
67.9403

> <PUBCHEM_FEATURE_SELFOVERLAP>
25.371

> <PUBCHEM_SHAPE_FINGERPRINT>
10411042 1 18123187905994255130
10763959 59 18408606937823254253
10816530 90 18336550525561209668
11405975 8 18408884066388078555
12166972 35 18273216391677904777
12403259 415 18113328718181498629
12596602 18 13479141172732416365
12616971 3 18130781283444711495
14170010 4 18273213114749460040
14251764 38 18413112745275097401
14528608 73 18409727374811180175
14933364 13 18408889525554904723
15183329 4 18342178830650649057
15196674 1 18409727392038613073
15238133 3 18261108587218756154
15348495 7 18261115210053078331
15420108 30 17911218827431638352
15439362 3 18122067774386857244
15788980 27 17917707998787206655
17844677 252 18410578388273697009
20157964 124 18342174501059786113
212847 35 18186520986275033986
21285901 2 18267028262784789526
21315763 129 18411133611501805333
21315764 268 18334286574931252293
21709351 56 18341043056661569959
221357 26 18411419479734512613
22149856 69 17702959149073238219
22289505 5 18411702063012985860
23557571 272 13398640432894036355
23558518 356 17826792843439842906
23559900 14 18202280320568774291
239999 70 18342458136004594135
29717793 49 16343708711564563822
3004659 81 18273778246139962393
3411729 13 18263922314636349512
350125 39 18408604738610283029
4073 2 18041846228495997011
46194498 28 18342462538372355972
495365 180 18059569252207797882
5104073 3 18335143124643212465
513532 50 18200887274129066428
53794403 172 18263368155869131621
542803 24 17530685398920355691
54446538 1 18412541003744777313
59755656 215 18200878383451642287
633830 44 18337099159797445079
7495541 125 18333168362319309586
8509985 295 18334008359386241794
90127 26 18261397771587605179

> <PUBCHEM_SHAPE_MULTIPOLES>
465.45
16.6
2.85
0.95
28.66
3.04
0.07
0.22
1.4
-3.63
-0.03
-1.25
-0.15
0.42

> <PUBCHEM_SHAPE_SELFOVERLAP>
991.911

> <PUBCHEM_SHAPE_VOLUME>
258.3

> <PUBCHEM_COORDINATE_TYPE>
2
5
10

$$$$
